Version 4
SHEET 1 1844 680
WIRE 208 -208 0 -208
WIRE 304 -208 208 -208
WIRE 544 -208 304 -208
WIRE 672 -208 608 -208
WIRE 544 -192 544 -208
WIRE 608 -192 608 -208
WIRE 0 -160 0 -208
WIRE 736 -160 736 -208
WIRE 848 -160 736 -160
WIRE 928 -160 848 -160
WIRE 992 -160 928 -160
WIRE 208 -128 208 -208
WIRE 736 -128 736 -160
WIRE 848 -128 848 -160
WIRE 992 -128 992 -160
WIRE 0 -16 0 -80
WIRE 208 -16 208 -64
WIRE 544 -16 544 -112
WIRE 544 -16 480 -16
WIRE 608 -16 608 -112
WIRE 736 -16 736 -64
WIRE 992 -16 992 -48
WIRE 848 48 848 -48
WIRE 848 48 16 48
WIRE 384 80 48 80
WIRE 480 96 480 -16
WIRE 640 96 480 96
WIRE 848 96 848 48
WIRE 480 128 480 96
WIRE 48 144 48 80
WIRE 80 144 48 144
WIRE 304 144 304 -208
WIRE 304 144 256 144
WIRE 640 144 640 96
WIRE -64 176 -112 176
WIRE 80 176 0 176
WIRE 352 176 256 176
WIRE 16 208 16 48
WIRE 80 208 16 208
WIRE 432 208 256 208
WIRE 848 224 848 176
WIRE -112 240 -112 176
WIRE 80 240 48 240
WIRE 288 240 256 240
WIRE 384 240 384 80
WIRE 480 240 480 224
WIRE 480 240 384 240
WIRE 576 240 480 240
WIRE 640 240 640 208
WIRE 640 240 576 240
WIRE 352 256 352 176
WIRE 480 272 480 240
WIRE 576 272 576 240
WIRE 48 320 48 240
WIRE 288 320 288 240
WIRE 288 320 48 320
WIRE -112 368 -112 320
WIRE 288 368 288 320
WIRE 352 368 352 336
WIRE 480 368 480 352
WIRE 576 368 576 336
WIRE 848 368 848 304
FLAG 288 368 0
FLAG 0 -16 0
FLAG 352 368 0
FLAG -112 368 0
FLAG 480 368 0
FLAG 608 -16 0
FLAG 736 -16 0
FLAG 848 368 0
FLAG 576 368 0
FLAG 992 -16 0
FLAG 928 -160 Vout
FLAG 208 -16 0
SYMBOL voltage 0 -176 R0
WINDOW 123 0 0 Left 2
WINDOW 39 24 44 Left 2
SYMATTR SpiceLine Rser=0.2
SYMATTR InstName V1
SYMATTR Value 12
SYMBOL res 336 240 R0
SYMATTR InstName Rfa
SYMATTR Value 47k
SYMBOL res -128 224 R0
SYMATTR InstName Rc
SYMATTR Value 4.7k
SYMBOL cap 0 160 R90
WINDOW 0 0 32 VBottom 2
WINDOW 3 32 32 VTop 2
SYMATTR InstName Cc
SYMATTR Value 22nF
SYMBOL cap 560 272 R0
SYMATTR InstName Csn
SYMATTR Value 0.01µF
SYMBOL cap 720 -128 R0
SYMATTR InstName Cout
SYMATTR Value 0.47µF
SYMBOL res 832 -144 R0
SYMATTR InstName Rfb1
SYMATTR Value {Rfb1}
SYMBOL res 832 80 R0
SYMATTR InstName Rfb2
SYMATTR Value {Rfb2}
SYMBOL res 976 -144 R0
SYMATTR InstName Rload
SYMATTR Value {Rload}
SYMBOL diode 672 -192 R270
WINDOW 0 32 32 VTop 2
WINDOW 3 0 32 VBottom 2
SYMATTR InstName D1
SYMATTR Value ES3J
SYMBOL nmos 432 128 R0
SYMATTR InstName M1
SYMATTR Value irfh7185pbf
SYMATTR Prefix X
SYMBOL ind2 528 -208 R0
WINDOW 0 -32 56 Left 2
WINDOW 3 -69 84 Left 2
SYMATTR InstName Lp
SYMATTR Value 2.5µH
SYMATTR Type ind
SYMBOL ind2 624 -96 R180
WINDOW 0 -30 53 Left 2
WINDOW 3 -83 29 Left 2
SYMATTR InstName Ls
SYMATTR Value 250µH
SYMATTR Type ind
SYMBOL cap 192 -128 R0
SYMATTR InstName Cin
SYMATTR Value 100µF
SYMBOL TVSdiode 624 144 R0
WINDOW 0 45 39 Left 2
SYMATTR InstName D2
SYMATTR Value SMDJ70CA
SYMATTR Prefix X
SYMBOL res 832 208 R0
SYMATTR InstName Rtrim
SYMATTR Value {Rtrim}
SYMBOL LM3488_TRANS 160 192 R0
SYMATTR InstName U1
SYMBOL res 464 256 R0
SYMATTR InstName Rsn
SYMATTR Value 0.01
TEXT -144 -248 Left 2 !.tran 0 10m 10u 10u uic
TEXT 752 -296 Left 2 !.include ES3J.lib
TEXT 512 -224 Left 2 !K Lp Ls 0.95
TEXT 752 -248 Left 2 !.include irfh7185pbf.spi
TEXT 752 -272 Left 2 !.include SMDJxxxCA.lib
TEXT 136 -368 Left 2 !.param Iout = {45m} Vout = {180} Vfb = {1.22}
TEXT 136 -344 Left 2 !.param Rfb1 = {1.2Meg} Rfb2 = {6.8k}
TEXT 136 -320 Left 2 !.param Rtrim = {(Vfb*Rfb1)/(Vout-Vfb)-Rfb2}
TEXT 136 -272 Left 2 !.meas Rtrim__ param Rtrim
TEXT 136 -296 Left 2 !.param Rload = {Vout/Iout}
TEXT 136 -248 Left 2 !.meas Rload__ param Rload
TEXT -208 16 Left 2 ;4W, 180V @ 5V in
TEXT -208 48 Left 2 ;8W, 180V @ 12V in
